<nodes>
    <node id="center" x="0.0" y="0.0" type="traffic_light"/>
    <node id="west" x="-200.0" y="0.0" type="dead_end"/>
    <node id="east" x="200.0" y="0.0" type="dead_end"/>
    <node id="north" x="0.0" y="200.0" type="dead_end"/>
    <node id="south" x="0.0" y="-200.0" type="dead_end"/>
</nodes>
